FoamFile
{
    version     2.0;
    format      ascii;
    class       dictionary;
    location    "constant";
    object      smoothingProperties;
}

smoothBandwidth   0;        // PCM reference (cellPoint), no DBM smoothing
