/*--------------------------------*- C++ -*----------------------------------*\
| =========                 |                                                 |
| \\      /  F ield         | OpenFOAM: The Open Source CFD Toolbox           |
|  \\    /   O peration     | Version:  v2312                                 |
|   \\  /    A nd           | Website:  www.openfoam.com                      |
|    \\/     M anipulation  |                                                 |
\*---------------------------------------------------------------------------*/
FoamFile
{
    version     2.0;
    format      ascii;
    class       dictionary;
    object      fvSchemes;
}
// * * * * * * * * * * * * * * * * * * * * * * * * * * * * * * * * * * * * * //

ddtSchemes
{
    default         Euler;
}

gradSchemes
{
    default         Gauss linear;
    /*
	// se mesh non ottima cellLimited Gauss linear 1;
    */
}

divSchemes
{
    default         none;

    div(phi,U)      Gauss limitedLinearV 1;

    div(phi,k)      Gauss upwind;
    div(phi,omega)  Gauss upwind;

    div(phi,h)      Gauss upwind;
    div(phi,Yi)     Gauss upwind;

    div(phi,Yi_h)   Gauss upwind;   // <-- AGGIUNTA CRITICA

    div(phi,K)      Gauss upwind;

    div(((rho*nuEff)*dev2(T(grad(U))))) Gauss linear;
}

laplacianSchemes
{
    //default         Gauss linear orthogonal; // per mesh perfettissime
    default	Gauss linear limited 0.5;
}

interpolationSchemes
{
    default         linear;
}

snGradSchemes
{
    default         limited 0.5;
}

wallDist
{
    method meshWave;
}


// ************************************************************************* //
