FoamFile
{
    version     2.0;
    format      ascii;
    class       dictionary;
    location    "chemkin";
    object      transportProperties;
}
".*"
{
    transport
    {
        As  1.406e-6;
        Ts  111.0;
    }
}
