ELEMENTS
H O N C
END
SPECIES
N2 O2 C10H22
END
